**
** Heading +++++++++++++++++++++++++++++++++++++++++++++++++
**
*Heading
Hash: CUCBrvAA, Date: 12/07/2022, Unit system: MM_TON_S_C
**
** Nodes +++++++++++++++++++++++++++++++++++++++++++++++++++
**
*Node
1, 5.00000000E+000, 0.00000000E+000, 2.00000000E+002
2, 4.69362990E+001, 0.00000000E+000, 2.00000000E+002
3, 5.19362990E+001, 5.00000000E+000, 2.00000000E+002
4, 5.19362990E+001, 3.44981185E+001, 2.00000000E+002
5, 4.69362990E+001, 3.94981185E+001, 2.00000000E+002
6, 5.00000000E+000, 3.94981185E+001, 2.00000000E+002
7, 0.00000000E+000, 3.44981185E+001, 2.00000000E+002
8, 0.00000000E+000, 5.00000000E+000, 2.00000000E+002
9, 4.40027021E+000, 3.03495196E+001, 2.00000000E+002
10, 4.40027021E+000, 9.06216974E+000, 2.00000000E+002
11, 9.40027021E+000, 3.53495196E+001, 2.00000000E+002
12, 4.26148419E+001, 3.53495196E+001, 2.00000000E+002
13, 4.76148419E+001, 3.03495196E+001, 2.00000000E+002
14, 4.76148419E+001, 9.06216974E+000, 2.00000000E+002
15, 4.26148419E+001, 4.06216974E+000, 2.00000000E+002
16, 9.40027021E+000, 4.06216974E+000, 2.00000000E+002
17, 5.19362990E+001, 5.00000000E+000, 0.00000000E+000
18, 5.19362990E+001, 3.44981185E+001, 0.00000000E+000
19, 4.69362990E+001, 0.00000000E+000, 0.00000000E+000
20, 5.00000000E+000, 0.00000000E+000, 0.00000000E+000
** ... 6451 like lines cut
**
** Elements ++++++++++++++++++++++++++++++++++++++++++++++++
**
*Element, Type=C3D4, Elset=Profile
1, 4741, 2912, 4678, 4573
2, 2321, 6185, 6165, 6259
3, 6325, 377, 5096, 5095
4, 2473, 2539, 6260, 6259
5, 2394, 6259, 2539, 2321
6, 3098, 4673, 4456, 4529
7, 4541, 2956, 2876, 2958
8, 2213, 3944, 2114, 3808
9, 2619, 4374, 2718, 4379
10, 5945, 5944, 5648, 5865
11, 2473, 2321, 2539, 6259
12, 2720, 4278, 4279, 4344
13, 6288, 6173, 2461, 6287
14, 5318, 216, 4973, 4974
15, 6196, 6197, 2559, 2490
16, 4702, 3196, 3092, 3133
17, 6467, 5926, 247, 5666
18, 2489, 6199, 2559, 6198
19, 2490, 6197, 2559, 2600
20, 3195, 4760, 4671, 3162
** ... 20515 like lines cut
**
** Node sets +++++++++++++++++++++++++++++++++++++++++++++++
**
*Nset, Nset=Internal_Selection-1_Fixed-1
1, 2, 3, 4, 5, 6, 7, 8, 9, 10, 11, 12, 13, 14, 15, 16, 
33, 34, 35, 36, 37, 38, 39, 40, 41, 42, 43, 44, 45, 46, 47, 48, 
49, 50, 51, 52, 53, 54, 55, 56, 57, 58, 59, 60, 61, 62, 63, 64, 
65, 66, 67, 68, 69, 70, 71, 72, 73, 74, 75, 76, 77, 78, 79, 80, 
81, 82, 83, 84, 85, 86, 87, 88, 89, 90, 91, 92, 93, 94, 1300, 1301, 
1302, 1303, 1304, 1305, 1306, 1307, 1308, 1309, 1310, 1311, 1312, 1313, 1314, 1315, 1316, 1317, 
1318, 1319, 1320, 1321, 1322
*Nset, Nset=Internal-1_Internal_Selection-1_Surface_traction-1
17, 18, 19, 20, 21, 22, 23, 24, 25, 26, 27, 28, 29, 30, 31, 32, 
95, 96, 97, 98, 99, 100, 101, 102, 103, 104, 105, 106, 107, 108, 109, 110, 
111, 112, 113, 114, 115, 116, 117, 118, 119, 120, 121, 122, 123, 124, 125, 126, 
127, 128, 129, 130, 131, 132, 133, 134, 135, 136, 137, 138, 139, 140, 141, 142, 
143, 144, 145, 146, 147, 148, 149, 150, 151, 152, 153, 154, 155, 156, 1323, 1324, 
1325, 1326, 1327, 1328, 1329, 1330, 1331, 1332, 1333, 1334, 1335, 1336, 1337, 1338, 1339, 1340, 
1341, 1342, 1343
**
** Element sets ++++++++++++++++++++++++++++++++++++++++++++
**
*Elset, Elset=Internal_Selection-1_Vol_S235
Profile
*Elset, Elset=Internal-1_Internal_Selection-1_Surface_traction-1_S4
875, 1320, 1347, 1490, 1678, 3473, 3528, 3639, 6454, 6511, 7044, 8163, 8169, 8175, 8187, 9604, 
9955, 10141, 11153, 13231, 14688, 15720, 19130, 19488
*Elset, Elset=Internal-1_Internal_Selection-1_Surface_traction-1_S3
936, 1123, 2172, 3261, 3583, 3623, 4330, 4345, 5758, 5893, 6741, 8080, 8606, 9346, 9354, 11726, 
12675, 15018, 16797, 17047, 17238, 17257, 17443, 18871, 19037, 19117, 19528, 19639, 19718, 19747
*Elset, Elset=Internal-1_Internal_Selection-1_Surface_traction-1_S2
1204, 1240, 2749, 2949, 3270, 3472, 3576, 5326, 6108, 6110, 7063, 7945, 8164, 8177, 8186, 8644, 
8656, 8959, 9814, 9841, 10937, 11066, 12234, 13046, 13342, 13550, 14962, 16330, 16336, 16952, 17236, 17413, 
17458, 17461, 17533, 17667, 18182, 19124
*Elset, Elset=Internal-1_Internal_Selection-1_Surface_traction-1_S1
1314, 2430, 4293, 4981, 5355, 6240, 7334, 7950, 8079, 8174, 8663, 9348, 9815, 13638, 14077, 14959, 
14974, 16340, 17084, 17249, 17694, 18183, 18737, 18999, 19293, 19443, 20128, 20247
**
** Surfaces ++++++++++++++++++++++++++++++++++++++++++++++++
**
*Surface, Name=Internal_Selection-1_Surface_traction-1, Type=Element
Internal-1_Internal_Selection-1_Surface_traction-1_S4, S4
Internal-1_Internal_Selection-1_Surface_traction-1_S3, S3
Internal-1_Internal_Selection-1_Surface_traction-1_S2, S2
Internal-1_Internal_Selection-1_Surface_traction-1_S1, S1
**
** Physical constants ++++++++++++++++++++++++++++++++++++++
**
**
** Materials +++++++++++++++++++++++++++++++++++++++++++++++
**
*Material, Name=S235
*Density
7.8E-09
*Elastic
210000, 0.28
*Expansion, Zero=20
1.1E-05
*Conductivity
14
*Specific heat
440000000
**
** Sections ++++++++++++++++++++++++++++++++++++++++++++++++
**
*Solid section, Elset=Internal_Selection-1_Vol_S235, Material=S235
**
** Pre-tension sections ++++++++++++++++++++++++++++++++++++
**
**
** Constraints +++++++++++++++++++++++++++++++++++++++++++++
**
**
** Surface interactions ++++++++++++++++++++++++++++++++++++
**
**
** Contact pairs +++++++++++++++++++++++++++++++++++++++++++
**
**
** Amplitudes ++++++++++++++++++++++++++++++++++++++++++++++
**
**
** Initial conditions ++++++++++++++++++++++++++++++++++++++
**
**
** Steps +++++++++++++++++++++++++++++++++++++++++++++++++++
**
**
** Step-1 ++++++++++++++++++++++++++++++++++++++++++++++++++
**
*Step
*Static
**
** Boundary conditions +++++++++++++++++++++++++++++++++++++
**
*Boundary, op=New
** Name: Fixed-1
*Boundary
Internal_Selection-1_Fixed-1, 1, 6, 0
**
** Loads +++++++++++++++++++++++++++++++++++++++++++++++++++
**
*Cload, op=New
*Dload, op=New
** Name: Surface_traction-1
*Cload
152, 1, 22.9913767124665
105, 1, 27.898062826003
106, 1, 21.5753380535081
1329, 1, 8.18832543042771
1330, 1, 8.48598238910887
119, 1, 4.34583952380966
125, 1, 19.9290726475222
139, 1, 17.6721984367526
124, 1, 20.1197299878668
1331, 1, 9.37539074936129
120, 1, 7.43146905652017
27, 1, 10.5303827570355
18, 1, 3.87901306674029
1333, 1, 13.5054939146341
100, 1, 9.6934180845251
115, 1, 17.4515158536098
116, 1, 14.4418280896094
146, 1, 15.6639915890457
23, 1, 4.41494220150159
1339, 1, 8.48556292688532
** ... 79 like lines cut
**
** Defined fields ++++++++++++++++++++++++++++++++++++++++++
**
**
** History outputs +++++++++++++++++++++++++++++++++++++++++
**
**
** Field outputs +++++++++++++++++++++++++++++++++++++++++++
**
*Node file
RF, U
*El file
S, E
**
** End step ++++++++++++++++++++++++++++++++++++++++++++++++
**
*End step
